30
4hhg_C_DRU.xyz
Ru        10.10000      -19.90800      -15.12500
N         11.00100      -18.38100      -14.73700
C         10.63500      -17.17000      -15.26600
C         11.35300      -16.02800      -14.98000
C         12.50700      -16.14600      -14.18500
C         12.83000      -17.40800      -13.68700
C         12.08300      -18.55900      -14.02500
C         12.20400      -20.03900      -13.61900
C         13.19900      -20.65700      -12.83000
C         13.13300      -22.03600      -12.61100
C         12.12800      -22.78900      -13.14000
C         11.17600      -22.16800      -13.91600
N         11.23500      -20.87300      -14.10700
N         11.04200      -20.26700      -16.64800
C         11.97900      -19.47500      -17.11100
C         12.64400      -19.80300      -18.30100
C         12.30100      -20.94500      -19.02100
C         11.28600      -21.77700      -18.52000
C         10.69800      -21.40100      -17.29900
C          9.60100      -22.10500      -16.59300
C          9.01500      -23.28100      -17.08700
C          8.04200      -23.87400      -16.33100
C          7.67200      -23.27500      -15.16300
C          8.27900      -22.09700      -14.71800
N          9.18500      -21.47200      -15.47900
C          7.61600      -18.87900      -16.48700
C          7.24600      -17.57300      -16.80700
N          9.01000      -18.76900      -16.09100
C          9.35000      -17.33300      -16.04400
N          8.26100      -16.66500      -16.55000
