13
RU7
C         -6.21300       11.00300        7.11200
C         -5.46500       11.96700        7.80000
C         -5.25200       11.84100        9.18000
C         -6.74300        9.92900        7.81600
C         -6.53900        9.80000        9.19700
C         -5.78600       10.75700        9.88000
C         -5.55900       10.59700       11.36600
Ru        -4.54700        9.81100        8.25200
Cl        -2.69900        9.27400        9.73500
Cl        -4.47300        7.57200        7.58200
C         -7.09400        9.76800        5.19000
C         -6.49500       11.09800        5.65300
C         -7.41100       12.24700        5.27400
