27
RU7
H        -10.41580       11.63260       15.82800
C        -10.94000       10.83800       16.35900
C        -11.19500        9.67900       15.41300
H        -11.89090       11.21730       16.73310
H        -10.33050       10.49670       17.19570
C         -9.96100        9.11300       14.80100
C        -11.93100        8.55200       16.14100
H        -11.83730       10.03610       14.60790
Ru        -8.09700       10.20100       13.88500
C         -9.91500        8.97300       13.42000
C         -8.86600        8.69200       15.56600
H        -12.10740        7.72720       15.45060
H        -11.32450        8.20270       16.97660
H        -12.88520        8.92330       16.51480
Cl        -5.80300       10.86000       13.42900
Cl        -8.72400       11.82900       12.32800
C         -7.70000        8.00700       13.55000
C         -7.73900        8.14200       14.93900
C         -8.79400        8.41900       12.78800
H        -10.75600        9.29600       12.82430
H         -8.88980        8.79120       16.64120
C         -6.49000        7.42600       12.85400
H         -6.89660        7.82110       15.53370
H         -8.77660        8.31110       11.71350
H         -5.73660        7.15990       13.59540
H         -6.07760        8.16410       12.16610
H         -6.78330        6.53540       12.29830
