13
RU7
C         -3.17900        8.32200        6.59600
C         -3.29400        9.19300        5.50500
C         -4.55900        9.52200        4.99800
C         -4.33000        7.78800        7.16100
C         -5.59700        8.10900        6.65500
C         -5.71200        8.98300        5.57300
C         -7.08500        9.33400        5.04800
Ru        -4.66000       10.00300        7.28600
Cl        -6.12800       11.93900        7.25900
Cl        -5.11800        9.86500        9.57500
C         -0.75800        8.55000        6.31100
C         -1.86100        7.91500        7.16000
C         -1.67600        8.27900        8.62100
