37
3T3
C         80.02700        5.70800       14.43400
C         83.04600        8.22200        9.94000
C         81.29300        7.33600        9.20400
C         80.09600        6.67500        8.92800
C         80.20100        7.23600        6.57500
O         83.89200        9.63500        5.62900
O         87.02100       10.91000        8.43300
C         84.53800        5.10100       13.23400
C         81.17400        5.90000       15.44700
S         83.60800        5.20100       11.60700
C         80.92800        4.03500       12.00400
S         80.30200        5.62900       12.60800
S         82.74200        6.69900       14.90100
C         82.43100        3.85500       12.10500
C         83.84000        5.24900       14.60700
N         81.96700        7.49900       10.38700
N         85.56800       10.38200        6.81500
N         83.92700        8.29000       12.17400
C         79.54300        6.62200        7.62800
C         81.42000        7.91300        6.81600
C         81.92000        7.93600        8.12700
C         83.07000        8.52500        8.62000
C         84.10100        9.25800        8.02000
C         84.42400        9.72300        6.72300
C         85.99500       10.37200        8.09100
C         85.11500        9.67700        8.90800
C         85.08900        9.36700       10.29700
C         86.11700        9.79900       11.14200
C         86.00500        9.44000       12.51000
C         84.90200        8.68000       12.99900
C         84.05300        8.63600       10.83900
F         86.98900        9.85700       13.33000
Ru        82.25500        7.16900       12.40800
O         79.66200        7.17800        5.31500
N         81.18300        8.66400       12.91500
S         78.17400        9.17100       12.70500
C         79.90900        8.84100       12.82400
