37
3T3
C         81.00200       11.43900        9.79700
C         85.04500        7.39800       11.51500
C         85.98200        8.89700       10.38700
C         86.39600        9.97900        9.60900
C         88.71400        9.28200        9.67800
O         89.21400        5.49400       12.05800
O         86.06800        3.19300       14.08000
C         80.89100        6.76600        9.24200
C         79.80400       10.58900       10.26700
S         82.68000        7.25200        8.94500
C         82.71500        9.93500        7.71900
S         82.64200       10.70700        9.36000
S         80.10500        8.94100       11.03300
C         82.21000        8.50500        7.65900
C         79.79900        7.79200        9.62500
N         84.73300        8.54900       10.83300
N         87.84100        4.18100       13.13800
N         82.73200        7.11500       12.09900
C         87.74900       10.18200        9.25400
C         88.33100        8.17100       10.46600
C         86.97400        8.02200       10.79000
C         86.35200        7.04100       11.53900
C         86.82300        5.89700       12.19700
C         88.06800        5.25800       12.40300
C         86.52800        4.09400       13.41800
C         85.82400        5.14700       12.85400
C         84.45100        5.52300       12.83600
C         83.49200        4.74800       13.49700
C         82.15000        5.20100       13.42100
C         81.79600        6.38600       12.71100
C         84.03700        6.65600       12.16900
F         81.22200        4.46200       14.06100
Ru        82.68200        8.78200       10.94600
O         90.02400        9.48200        9.32700
N         82.79100        9.96100       12.44300
S         82.07400        9.40600       15.36400
C         82.48300        9.76300       13.67900
