37
3T3
C         83.36200        5.86700       15.21000
C         87.76400        8.43400       12.10200
C         86.18800        7.93500       10.81200
C         85.04200        7.51100       10.13700
C         85.85100        8.34500        8.01400
O         89.91300       10.24000        8.43900
O         92.28500       10.63900       12.11200
C         87.92600        4.72200       15.10400
C         84.20400        5.74600       16.49700
S         87.49400        5.17400       13.33400
C         84.69000        4.40000       12.84500
S         84.11400        5.98100       13.52600
S         85.94300        6.35300       16.50400
C         86.07700        3.97600       13.29000
C         86.90200        4.79900       16.26100
N         86.52700        7.83800       12.13700
N         91.27700       10.55700       10.11600
N         88.00400        8.07700       14.46600
C         84.86300        7.71200        8.75000
C         87.02800        8.78700        8.66300
C         87.15000        8.56300       10.04300
C         88.18200        8.89700       10.89900
C         89.41600        9.53100       10.70900
C         90.13300       10.10200        9.63000
C         91.33500       10.31600       11.43900
C         90.19100        9.66900       11.88000
C         89.75100        9.19100       13.14700
C         90.55200        9.34500       14.28400
C         90.03000        8.83500       15.50000
C         88.75500        8.20000       15.56300
C         88.52900        8.56700       13.28200
F         90.79500        8.98500       16.59900
Ru        86.21300        7.21000       14.08100
O         85.67300        8.53400        6.66700
N         85.22500        8.77700       14.54200
S         85.34400       11.54700       13.25200
C         85.24500        9.95400       14.01800
