37
3T3
S         86.48200        2.51600        5.85200
C         84.71900        2.57800        5.70300
N         83.43200        2.57300        5.63600
Ru        82.16100        1.42300        6.47500
N         80.84800        1.51900        4.88200
N         82.87600       -0.23800        5.56000
S         80.38400       -0.04700        7.48900
S         81.12100        3.35100        7.67000
S         83.75300        1.17200        8.49400
C         79.79800        2.06900        4.19200
C         81.08700        0.41800        4.09600
C         83.83500       -1.11800        5.85800
C         82.12000       -0.48700        4.42600
C         81.61400       -0.81400        8.68200
C         79.76300        1.14300        8.77100
C         82.51000        3.80500        8.80000
C         79.67400        2.63300        8.49800
C         83.49400        2.76800        9.37800
C         82.67300        0.01900        9.44200
C         79.04900        3.21900        4.44800
C         79.44700        1.35400        3.06200
C         80.30500        0.27100        3.00000
C         84.07000       -2.24600        5.01800
C         82.29100       -1.55400        3.57000
C         77.99600        3.63900        3.60500
C         78.41000        1.72100        2.19100
C         80.43300       -0.79700        2.10400
F         85.04400       -3.13500        5.29200
C         83.29700       -2.48400        3.85200
C         81.46200       -1.70900        2.42300
C         77.67500        2.89500        2.48200
C         79.80200       -1.23500        0.91600
C         81.39000       -2.64900        1.40600
O         76.65000        3.30600        1.66900
O         78.88100       -0.81500        0.23500
N         80.40800       -2.35000        0.53600
O         82.09100       -3.62400        1.27600
