43
RUR
C          1.36900      -22.09700       -1.56300
C         -0.23000      -26.56900       -2.17700
C         -2.29800      -25.24000       -6.33400
C         -0.12000      -20.93100       -6.08600
C          0.91600      -23.35700       -1.21800
C          0.75000      -23.92800        0.09400
C          0.29200      -25.16600       -0.08500
C          0.18400      -25.43900       -1.50000
C         -0.06300      -26.16500        0.99700
C         -0.97900      -26.68800       -3.33600
C         -1.74000      -27.78400       -3.85700
C         -2.29900      -27.39100       -5.00300
C         -1.94100      -26.04200       -5.26900
C         -1.82300      -29.15000       -3.19800
C         -1.93700      -23.97600       -6.74300
C         -2.26300      -23.22000       -7.91300
C         -1.65800      -22.03200       -7.83200
C         -0.90600      -21.94900       -6.61900
C         -3.14700      -23.71200       -9.05100
C          0.46400      -20.71800       -4.83900
C          1.07000      -19.53600       -4.28200
C          1.54600      -19.88600       -2.86700
C          1.18400      -21.27000       -2.66600
C          1.19100      -18.20000       -4.98600
Ru        -0.37500      -23.62700       -4.03100
N          0.60000      -24.31800       -2.08900
N         -1.17600      -25.72900       -4.23400
N         -1.14900      -23.12900       -6.09400
N          0.61600      -21.61000       -3.84200
C         -3.18600      -28.18000       -5.94400
C         -4.46500      -27.91800       -6.00800
C         -1.70400      -20.90000       -8.83700
C         -1.71500      -19.65500       -8.43500
C          0.98900      -23.19000        1.42200
C          2.43400      -22.84800        1.73700
C          3.35400      -23.64100        0.87900
O          4.40300      -23.18600        0.53200
O          3.06100      -24.74700        0.53400
C          2.22100      -18.96400       -1.84900
C          1.42900      -18.73600       -0.60000
C          1.71600      -19.85300        0.35200
O          2.77400      -19.86600        0.96800
O          0.87700      -20.72000        0.49200
