30
4hhg_C_DRU.xyz
Ru        10.10200      -19.64600      -15.12500
N         10.90700      -18.05200      -14.80100
C         10.45500      -16.88500      -15.36400
C         11.10100      -15.69100      -15.12700
C         12.27100      -15.70600      -14.34600
C         12.68200      -16.92800      -13.81200
C         12.00600      -18.13600      -14.10100
C         12.22900      -19.58900      -13.64700
C         13.27200      -20.11500      -12.85400
C         13.30000      -21.48700      -12.58900
C         12.33900      -22.32100      -13.07700
C         11.33800      -21.79000      -13.85900
N         11.31000      -20.50000      -14.09400
N         11.04600      -19.99500      -16.65000
C         11.92300      -19.16000      -17.15300
C         12.59200      -19.48400      -18.34100
C         12.31500      -20.66900      -19.01700
C         11.36300      -21.54800      -18.47500
C         10.76800      -21.17000      -17.25800
C          9.72800      -21.91900      -16.51200
C          9.21400      -23.14700      -16.95900
C          8.29100      -23.77500      -16.16900
C          7.89800      -23.16200      -15.01600
C          8.43200      -21.93300      -14.61900
N          9.28600      -21.27700      -15.41400
C          7.53900      -18.82600      -16.48300
C          7.08000      -17.55900      -16.84000
N          8.92700      -18.61400      -16.11100
C          9.17400      -17.15800      -16.11700
N          8.03700      -16.57900      -16.62900
