30
LRU
Ru        18.15200        9.97400       17.55000
N         19.96600       10.66100       16.81700
C         20.10600       11.46800       15.74000
C         21.35200       11.91200       15.30100
C         22.45800       11.49100       16.00800
C         22.32300       10.67600       17.09500
C         21.05700       10.24300       17.50100
C         20.76600        9.37400       18.63300
C         21.74700        8.86900       19.44500
C         21.40200        8.04300       20.49500
C         20.05300        7.75700       20.71100
C         19.10800        8.27900       19.88100
N         19.46100        9.07900       18.85100
N         17.83000       11.51400       18.95200
C         18.63100       12.59900       19.16600
C         18.35400       13.58100       20.16100
C         17.19900       13.44500       20.95700
C         16.39600       12.34800       20.73000
C         16.70900       11.38800       19.72300
C         15.90800       10.20700       19.43800
C         14.73100        9.93200       20.14300
C         14.01100        8.81400       19.83400
C         14.46000        7.96400       18.84000
C         15.63500        8.26500       18.16100
N         16.36800        9.38400       18.45900
C         18.89700        8.29900       15.02600
C         18.96900        7.00800       14.63500
N         18.21700        8.41100       16.21900
C         17.90300        7.16100       16.50400
N         18.32100        6.28900       15.60400
