30
LRU
Ru        18.15400        9.97500       17.54900
N         20.02100       10.48100       16.80400
C         20.23200       11.24600       15.70800
C         21.51100       11.56800       15.26000
C         22.57600       11.07000       15.98100
C         22.37000       10.29800       17.08800
C         21.07100        9.98800       17.50100
C         20.70500        9.17700       18.65400
C         21.63800        8.60900       19.48100
C         21.22100        7.84300       20.55100
C         19.85300        7.68100       20.77000
C         18.95700        8.26200       19.92500
N         19.37900        9.00200       18.87600
N         17.96700       11.57200       18.91200
C         18.86000       12.58800       19.10000
C         18.66900       13.61500       20.06900
C         17.50700       13.60100       20.86500
C         16.61100       12.57300       20.66500
C         16.83900       11.56400       19.68200
C         15.93800       10.45000       19.42500
C         14.74200       10.29700       20.13500
C         13.92600        9.23900       19.85200
C         14.30000        8.32800       18.88100
C         15.49700        8.50800       18.19700
N         16.32500        9.56700       18.46900
C         18.58300        8.25800       14.98100
C         18.64600        6.96000       14.61200
N         18.08200        8.37800       16.25900
C         17.86300        7.12600       16.61400
N         18.17600        6.24600       15.68200
