30
LRU
Ru        18.15600        9.97300       17.54900
N         19.98500       10.59400       16.79600
C         20.14400       11.37300       15.70200
C         21.39900       11.77400       15.25000
C         22.49600       11.33800       15.96300
C         22.34200       10.55000       17.06800
C         21.06700       10.16200       17.48700
C         20.75600        9.32500       18.63800
C         21.72500        8.81100       19.45800
C         21.36200        8.01800       20.52700
C         20.00600        7.77300       20.75200
C         19.07300        8.30200       19.91400
N         19.44400        9.07100       18.86600
N         17.88100       11.55100       18.91900
C         18.71200       12.61800       19.10700
C         18.46500       13.62800       20.08200
C         17.30900       13.54200       20.88400
C         16.47600       12.46200       20.68300
C         16.75900       11.47200       19.69600
C         15.92600       10.30700       19.43800
C         14.74400       10.08000       20.15300
C         13.99200        8.97600       19.87100
C         14.41500        8.09300       18.89400
C         15.59500        8.34700       18.20500
N         16.35900        9.45200       18.47700
C         18.80600        8.24300       15.03600
C         18.86600        6.94400       14.67200
N         18.17300        8.38000       16.25200
C         17.87600        7.13600       16.57700
N         18.26100        6.24500       15.68200
