52
RTB
H         19.28760        5.09950       15.80730
C         19.20500        6.11700       16.16000
C         19.82600        7.13700       15.45400
C         18.46500        6.38900       17.33500
H         20.39030        6.92380       14.55820
C         19.70700        8.42900       15.92100
H         17.97480        5.60460       17.89260
C         18.40200        7.72700       17.73600
C         20.26500        9.64100       15.35100
N         18.99900        8.67800       17.04100
C         17.68000        8.24300       18.92400
C         21.03600        9.69200       14.17200
N         19.98400       10.82100       16.04600
Ru        18.85000       10.52900       17.68600
C         16.98900        7.45300       19.81400
N         17.77900        9.60600       19.09900
H         21.25160        8.78330       13.62970
C         21.51400       10.89500       13.71100
C         20.47000       11.98600       15.56100
N         20.53300       10.47000       18.71100
N         18.79700       12.43100       18.36400
H         16.93970        6.38350       19.67170
C         16.35900        8.04500       20.89200
C         17.14000       10.15900       20.18800
H         22.10970       10.92600       12.81070
C         21.23900       12.05900       14.38800
H         20.25790       12.89860       16.09820
C         21.34300        9.39100       18.82500
C         20.85600       11.60600       19.32300
C         17.91600       13.42100       18.19800
C         19.92000       12.67300       19.15200
H         15.79650        7.43810       21.58600
C         16.44600        9.41300       21.08600
H         17.19330       11.22790       20.33290
H         21.60590       13.00820       14.02630
H         21.06950        8.47530       18.32200
C         22.49700        9.42600       19.55800
C         22.00100       11.71700       20.08200
H         17.02880       13.23690       17.61030
C         18.10500       14.69800       18.76400
C         20.14000       13.92500       19.72200
H         15.97040        9.87880       21.93640
H         23.12940        8.55430       19.63890
C         22.83700       10.62500       20.20200
C         22.24600       13.01700       20.68000
H         17.38230       15.48220       18.59330
C         19.21300       14.93500       19.53200
C         21.36500       14.05800       20.51300
H         23.74320       10.69310       20.78550
H         23.13900       13.16890       21.26810
H         19.36280       15.90320       19.98640
H         21.58340       15.00650       20.98100
