RTB
 OpenBabel08162214483D

 52 60  0  0  1  0  0  0  0  0999 V2000
   18.8500   10.5290   17.6860 Ru  0  0  0  0  0  0  0  0  0  0  0  0
   20.5330   10.4700   18.7110 N   0  3  0  0  0  0  0  0  0  0  0  0
   18.9990    8.6780   17.0410 N   0  0  1  0  0  0  0  0  0  0  0  0
   18.7970   12.4310   18.3640 N   0  3  0  0  0  0  0  0  0  0  0  0
   19.9840   10.8210   16.0460 N   0  3  0  0  0  0  0  0  0  0  0  0
   17.7790    9.6060   19.0990 N   0  3  0  0  0  0  0  0  0  0  0  0
   21.3430    9.3910   18.8250 C   0  0  0  0  0  0  0  0  0  0  0  0
   22.4970    9.4260   19.5580 C   0  0  0  0  0  0  0  0  0  0  0  0
   22.8370   10.6250   20.2020 C   0  0  0  0  0  0  0  0  0  0  0  0
   22.0010   11.7170   20.0820 C   0  0  0  0  0  0  0  0  0  0  0  0
   20.8560   11.6060   19.3230 C   0  0  0  0  0  0  0  0  0  0  0  0
   19.7070    8.4290   15.9210 C   0  0  1  0  0  0  0  0  0  0  0  0
   19.8260    7.1370   15.4540 C   0  0  0  0  0  0  0  0  0  0  0  0
   19.2050    6.1170   16.1600 C   0  0  0  0  0  0  0  0  0  0  0  0
   18.4650    6.3890   17.3350 C   0  0  0  0  0  0  0  0  0  0  0  0
   18.4020    7.7270   17.7360 C   0  0  2  0  0  0  0  0  0  0  0  0
   17.9160   13.4210   18.1980 C   0  0  0  0  0  0  0  0  0  0  0  0
   18.1050   14.6980   18.7640 C   0  0  0  0  0  0  0  0  0  0  0  0
   19.2130   14.9350   19.5320 C   0  0  0  0  0  0  0  0  0  0  0  0
   20.1400   13.9250   19.7220 C   0  0  0  0  0  0  0  0  0  0  0  0
   19.9200   12.6730   19.1520 C   0  0  0  0  0  0  0  0  0  0  0  0
   20.2650    9.6410   15.3510 C   0  0  0  0  0  0  0  0  0  0  0  0
   20.4700   11.9860   15.5610 C   0  0  0  0  0  0  0  0  0  0  0  0
   21.2390   12.0590   14.3880 C   0  0  0  0  0  0  0  0  0  0  0  0
   21.5140   10.8950   13.7110 C   0  0  0  0  0  0  0  0  0  0  0  0
   21.0360    9.6920   14.1720 C   0  0  0  0  0  0  0  0  0  0  0  0
   17.6800    8.2430   18.9240 C   0  0  0  0  0  0  0  0  0  0  0  0
   17.1400   10.1590   20.1880 C   0  0  0  0  0  0  0  0  0  0  0  0
   16.4460    9.4130   21.0860 C   0  0  0  0  0  0  0  0  0  0  0  0
   16.3590    8.0450   20.8920 C   0  0  0  0  0  0  0  0  0  0  0  0
   16.9890    7.4530   19.8140 C   0  0  0  0  0  0  0  0  0  0  0  0
   21.3650   14.0580   20.5130 C   0  0  0  0  0  0  0  0  0  0  0  0
   22.2460   13.0170   20.6800 C   0  0  0  0  0  0  0  0  0  0  0  0
   21.0695    8.4753   18.3220 H   0  0  0  0  0  0  0  0  0  0  0  0
   23.1294    8.5543   19.6389 H   0  0  0  0  0  0  0  0  0  0  0  0
   23.7432   10.6931   20.7855 H   0  0  0  0  0  0  0  0  0  0  0  0
   20.3903    6.9238   14.5582 H   0  0  0  0  0  0  0  0  0  0  0  0
   19.2876    5.0995   15.8073 H   0  0  0  0  0  0  0  0  0  0  0  0
   17.9748    5.6046   17.8926 H   0  0  0  0  0  0  0  0  0  0  0  0
   17.0288   13.2369   17.6103 H   0  0  0  0  0  0  0  0  0  0  0  0
   17.3823   15.4822   18.5933 H   0  0  0  0  0  0  0  0  0  0  0  0
   19.3628   15.9032   19.9864 H   0  0  0  0  0  0  0  0  0  0  0  0
   20.2579   12.8986   16.0982 H   0  0  0  0  0  0  0  0  0  0  0  0
   21.6059   13.0082   14.0263 H   0  0  0  0  0  0  0  0  0  0  0  0
   22.1097   10.9260   12.8107 H   0  0  0  0  0  0  0  0  0  0  0  0
   21.2516    8.7833   13.6297 H   0  0  0  0  0  0  0  0  0  0  0  0
   17.1933   11.2279   20.3329 H   0  0  0  0  0  0  0  0  0  0  0  0
   15.9704    9.8788   21.9364 H   0  0  0  0  0  0  0  0  0  0  0  0
   15.7965    7.4381   21.5860 H   0  0  0  0  0  0  0  0  0  0  0  0
   16.9397    6.3835   19.6717 H   0  0  0  0  0  0  0  0  0  0  0  0
   21.5834   15.0065   20.9810 H   0  0  0  0  0  0  0  0  0  0  0  0
   23.1390   13.1689   21.2681 H   0  0  0  0  0  0  0  0  0  0  0  0
  1  2  1  0  0  0  0
  1  6  1  0  0  0  0
  1  4  1  0  0  0  0
  1  5  1  0  0  0  0
  2  7  2  0  0  0  0
  2 11  1  0  0  0  0
  3  1  1  1  0  0  0
  4 17  2  0  0  0  0
  4 21  1  0  0  0  0
  5 22  2  0  0  0  0
  5 23  1  0  0  0  0
  6 27  2  0  0  0  0
  6 28  1  0  0  0  0
  7  8  1  0  0  0  0
  8  9  2  0  0  0  0
  9 10  1  0  0  0  0
 10 11  2  0  0  0  0
 10 33  1  0  0  0  0
 11 21  1  0  0  0  0
 12  3  1  6  0  0  0
 12 13  1  0  0  0  0
 12 22  1  0  0  0  0
 13 14  1  0  0  0  0
 14 15  1  0  0  0  0
 15 16  1  0  0  0  0
 16  3  1  6  0  0  0
 16 27  1  0  0  0  0
 17 18  1  0  0  0  0
 18 19  2  0  0  0  0
 19 20  1  0  0  0  0
 20 21  2  0  0  0  0
 20 32  1  0  0  0  0
 22 26  1  0  0  0  0
 23 24  2  0  0  0  0
 24 25  1  0  0  0  0
 25 26  2  0  0  0  0
 27 31  1  0  0  0  0
 28 29  2  0  0  0  0
 29 30  1  0  0  0  0
 30 31  2  0  0  0  0
 32 33  2  0  0  0  0
 34  7  1  0  0  0  0
 35  8  1  0  0  0  0
 36  9  1  0  0  0  0
 37 13  1  0  0  0  0
 38 14  1  0  0  0  0
 39 15  1  0  0  0  0
 40 17  1  0  0  0  0
 41 18  1  0  0  0  0
 42 19  1  0  0  0  0
 43 23  1  0  0  0  0
 44 24  1  0  0  0  0
 45 25  1  0  0  0  0
 46 26  1  0  0  0  0
 47 28  1  0  0  0  0
 48 29  1  0  0  0  0
 49 30  1  0  0  0  0
 50 31  1  0  0  0  0
 51 32  1  0  0  0  0
 52 33  1  0  0  0  0
M  CHG  4   2   1   4   1   5   1   6   1
M  END
$$$$
