43
RUR
C         -4.92900      -18.11100       -9.71200
C         -7.76200      -16.34000       -6.28200
C         -3.86000      -15.15900       -3.69300
C         -0.99700      -16.29100       -7.42000
C         -6.05400      -17.97600       -8.91800
C         -7.29500      -18.70300       -8.98100
C         -8.07200      -18.21500       -8.01500
C         -7.37700      -17.14800       -7.33300
C         -9.47300      -18.67100       -7.66200
C         -7.02700      -15.86200       -5.21000
C         -7.44000      -15.36200       -3.93200
C         -6.34600      -15.04300       -3.23900
C         -5.19200      -15.32700       -4.01700
C         -8.89100      -15.20200       -3.51200
C         -2.68100      -15.29800       -4.39000
C         -1.32200      -15.01800       -4.03700
C         -0.54300      -15.33700       -5.07300
C         -1.33900      -15.83400       -6.15100
C         -0.86900      -14.44400       -2.70200
C         -1.69400      -16.96200       -8.42200
C         -1.21800      -17.61100       -9.61600
C         -2.43800      -18.18200      -10.34800
C         -3.57800      -17.83900       -9.53100
C          0.23400      -17.70600      -10.04200
Ru        -4.32200      -16.55100       -6.76700
N         -6.20100      -17.06400       -7.95400
N         -5.70200      -15.80400       -5.14300
N         -2.54300      -15.75400       -5.62800
N         -3.02400      -17.14700       -8.51300
C         -6.24400      -14.46400       -1.84400
C         -6.55500      -13.21200       -1.63200
C          0.96400      -15.20800       -5.17000
C          1.56100      -15.26300       -6.33400
C         -7.59700      -19.86700       -9.94000
C         -8.96400      -19.84200      -10.60000
C         -9.18600      -21.08500      -11.38300
O         -8.69300      -21.21900      -12.46400
O         -9.85300      -21.97200      -10.93900
C         -2.45900      -18.99100      -11.64800
C         -1.20500      -19.76100      -11.91700
C         -1.45800      -21.20100      -11.60500
O         -2.57500      -21.55600      -11.25000
O         -0.53900      -21.98600      -11.72200
