4j8x_L_RU7
 OpenBabel08162216583D

 25 28  0  0  1  0  0  0  0  0999 V2000
  -27.4790  -22.3500   23.8570 C   0  0  0  0  0  0  0  0  0  0  0  0
  -27.7140  -22.3910   25.4000 C   0  0  0  0  0  0  0  0  0  0  0  0
  -27.3090  -23.7820   25.9270 C   0  0  0  0  0  0  0  0  0  0  0  0
  -29.1560  -22.1480   25.8660 C   0  0  2  0  0  0  0  0  0  0  0  0
  -29.3790  -21.7190   27.2170 C   0  0  2  0  0  0  0  0  0  0  0  0
  -30.6630  -21.5010   27.7040 C   0  0  2  0  0  0  0  0  0  0  0  0
  -30.2750  -22.3170   25.0600 C   0  0  1  0  0  0  0  0  0  0  0  0
  -31.5900  -22.0750   25.5690 C   0  0  1  0  0  0  0  0  0  0  0  0
  -31.8120  -21.6700   26.8920 C   0  0  2  0  0  0  0  0  0  0  0  0
  -33.2030  -21.4240   27.4140 C   0  0  0  0  0  0  0  0  0  0  0  0
  -30.4090  -20.2890   25.9290 Ru  0  0  2  0  0  0  0  0  0  0  0  0
  -27.7619  -21.3704   23.4718 H   0  0  0  0  0  0  0  0  0  0  0  0
  -28.0854  -23.1180   23.3768 H   0  0  0  0  0  0  0  0  0  0  0  0
  -26.4257  -22.5335   23.6449 H   0  0  0  0  0  0  0  0  0  0  0  0
  -27.0707  -21.6450   25.8665 H   0  0  0  0  0  0  0  0  0  0  0  0
  -27.4686  -23.8235   27.0045 H   0  0  0  0  0  0  0  0  0  0  0  0
  -27.9160  -24.5455   25.4404 H   0  0  0  0  0  0  0  0  0  0  0  0
  -26.2562  -23.9610   25.7085 H   0  0  0  0  0  0  0  0  0  0  0  0
  -33.1508  -21.1191   28.4592 H   0  0  0  0  0  0  0  0  0  0  0  0
  -33.7889  -22.3395   27.3317 H   0  0  0  0  0  0  0  0  0  0  0  0
  -33.6766  -20.6357   26.8288 H   0  0  0  0  0  0  0  0  0  0  0  0
  -32.3535  -22.7293   25.1748 H   0  0  0  0  0  0  0  0  0  0  0  0
  -30.1667  -23.1175   24.3432 H   0  0  0  0  0  0  0  0  0  0  0  0
  -30.7940  -21.7789   28.7394 H   0  0  0  0  0  0  0  0  0  0  0  0
  -28.6817  -22.1255   27.9346 H   0  0  0  0  0  0  0  0  0  0  0  0
  1  2  1  0  0  0  0
  1 12  1  0  0  0  0
  1 14  1  0  0  0  0
  1 13  1  0  0  0  0
  2  4  1  0  0  0  0
  2  3  1  0  0  0  0
  2 15  1  0  0  0  0
  3 17  1  0  0  0  0
  3 18  1  0  0  0  0
  3 16  1  0  0  0  0
  4  7  1  1  0  0  0
  4  5  1  0  0  0  0
  5  6  1  1  0  0  0
  6  9  1  0  0  0  0
  6 11  1  1  0  0  0
  7  8  1  1  0  0  0
  8 11  1  6  0  0  0
  9 10  1  0  0  0  0
  9  8  1  6  0  0  0
 10 19  1  0  0  0  0
 10 21  1  0  0  0  0
 10 20  1  0  0  0  0
 11  5  1  6  0  0  0
 11  7  1  0  0  0  0
 22  8  1  0  0  0  0
 23  7  1  0  0  0  0
 24  6  1  0  0  0  0
 25  5  1  0  0  0  0
M  END
$$$$
