44

H 2.785240 2.363969 -1.154517
C 1.855735 1.840512 -0.926409
C 1.815136 0.440279 -0.997136
C 0.722368 2.569177 -0.558772
H 2.705450 -0.126771 -1.268591
C 0.629274 -0.221218 -0.681355
H 0.753877 3.657362 -0.497304
C -0.461550 1.880180 -0.281252
C 0.420697 -1.678927 -0.537729
N -0.470862 0.518702 -0.347349
C -1.821738 2.412361 -0.091213
C 1.319991 -2.708898 -0.831567
N -0.777505 -2.001726 0.023329
Ru -1.995379 -0.455051 0.401028
C -2.269494 3.704852 -0.393854
N -2.737534 1.421714 0.108618
H 2.289073 -2.485930 -1.278415
C 0.960569 -4.028471 -0.533639
C -1.124678 -3.248023 0.359370
O -2.980058 -2.175416 1.392649
O -3.652123 -0.700366 -0.928349
S -1.090418 -0.012182 2.433491
H -1.554817 4.518570 -0.522765
C -3.633389 3.910269 -0.619734
C -3.991491 1.550861 -0.361040
H 1.653758 -4.838824 -0.765805
C -0.269803 -4.310083 0.075537
C -2.451417 -3.324568 1.118226
C -4.573433 0.212729 -0.797039
C 0.041337 -1.288562 3.036276
C -2.424694 -0.126220 3.642810
O -0.401758 1.312379 2.616857
H 0.901470 -1.293322 2.355116
H -0.466882 -2.260627 3.028591
H 0.352279 -1.003884 4.049507
H -3.116503 0.689268 3.397096
H -2.912822 -1.100315 3.516220
H -1.990877 0.009519 4.642338
H -4.001390 4.911502 -0.850770
C -4.496948 2.804736 -0.686050
H -0.567659 -5.324384 0.341946
O -2.893760 -4.422588 1.439336
O -5.754637 0.090583 -1.093904
H -5.526343 2.893733 -1.035683
