RUR
 OpenBabel08162216463D

 73 80  0  0  0  0  0  0  0  0999 V2000
   -0.9860  -20.2010   -5.6800 C   0  0  0  0  0  0  0  0  0  0  0  0
   -2.8890  -24.5270   -6.4510 C   0  0  0  0  0  0  0  0  0  0  0  0
   -0.5460  -26.2270   -2.5850 C   0  0  0  0  0  0  0  0  0  0  0  0
    0.8160  -21.7460   -1.3900 C   0  0  0  0  0  0  0  0  0  0  0  0
   -1.5100  -21.2640   -6.3920 C   0  0  0  0  0  0  0  0  0  0  0  0
   -1.7560  -21.3700   -7.8070 C   0  0  0  0  0  0  0  0  0  0  0  0
   -2.2720  -22.5810   -8.0150 C   0  0  0  0  0  0  0  0  0  0  0  0
   -2.4050  -23.2690   -6.7520 C   0  0  0  0  0  0  0  0  0  0  0  0
   -2.6770  -23.1750   -9.3480 C   0  0  0  0  0  0  0  0  0  0  0  0
   -1.4020  -20.3000   -8.8530 C   0  0  0  0  0  0  0  0  0  0  0  0
   -2.2590  -19.0480   -8.8340 C   0  0  0  0  0  0  0  0  0  0  0  0
   -3.4760  -19.2380   -9.6680 C   0  0  0  0  0  0  0  0  0  0  0  0
   -3.4800  -20.0280  -10.5640 O   0  0  0  0  0  0  0  0  0  0  0  0
   -4.4680  -18.6090   -9.4460 O   0  0  0  0  0  0  0  0  0  0  0  0
   -2.4450  -25.4530   -5.5210 C   0  0  0  0  0  0  0  0  0  0  0  0
   -2.6480  -26.8680   -5.4290 C   0  0  0  0  0  0  0  0  0  0  0  0
   -1.9930  -27.3110   -4.3550 C   0  0  0  0  0  0  0  0  0  0  0  0
   -1.3360  -26.2250   -3.7180 C   0  0  0  0  0  0  0  0  0  0  0  0
   -3.5100  -27.6660   -6.3920 C   0  0  0  0  0  0  0  0  0  0  0  0
   -1.9030  -28.7230   -3.8160 C   0  0  0  0  0  0  0  0  0  0  0  0
   -1.8110  -29.7330   -4.6430 C   0  0  0  0  0  0  0  0  0  0  0  0
    0.0470  -25.2410   -1.8300 C   0  0  0  0  0  0  0  0  0  0  0  0
    0.7820  -25.2880   -0.6020 C   0  0  0  0  0  0  0  0  0  0  0  0
    1.1530  -24.0460   -0.2850 C   0  0  0  0  0  0  0  0  0  0  0  0
    0.6840  -23.1260   -1.2730 C   0  0  0  0  0  0  0  0  0  0  0  0
    1.0690  -26.5530    0.1940 C   0  0  0  0  0  0  0  0  0  0  0  0
    1.9430  -23.5980    0.9280 C   0  0  0  0  0  0  0  0  0  0  0  0
    3.2410  -23.7570    0.9710 C   0  0  0  0  0  0  0  0  0  0  0  0
    0.5590  -20.8370   -2.4150 C   0  0  0  0  0  0  0  0  0  0  0  0
    0.9350  -19.4540   -2.5510 C   0  0  0  0  0  0  0  0  0  0  0  0
    0.3740  -18.9540   -3.8880 C   0  0  0  0  0  0  0  0  0  0  0  0
   -0.3050  -20.0860   -4.4730 C   0  0  0  0  0  0  0  0  0  0  0  0
    1.7480  -18.6640   -1.5450 C   0  0  0  0  0  0  0  0  0  0  0  0
    0.5310  -17.5640   -4.5100 C   0  0  0  0  0  0  0  0  0  0  0  0
   -0.3680  -16.5200   -3.9260 C   0  0  0  0  0  0  0  0  0  0  0  0
    0.0280  -15.1900   -4.4820 C   0  0  0  0  0  0  0  0  0  0  0  0
    1.2090  -14.9520   -4.7010 O   0  0  0  0  0  0  0  0  0  0  0  0
   -0.8460  -14.3770   -4.7090 O   0  0  0  0  0  0  0  0  0  0  0  0
   -0.8040  -23.1520   -4.0270 Ru  0  0  2  0  0  0  0  0  0  0  0  0
   -1.9530  -22.4010   -5.8480 N   0  0  0  0  0  0  0  0  0  0  0  0
   -1.6620  -25.1920   -4.4810 N   0  0  0  0  0  0  0  0  0  0  0  0
    0.0630  -23.9420   -2.0970 N   0  0  0  0  0  0  0  0  0  0  0  0
   -0.1440  -21.0510   -3.5430 N   0  0  0  0  0  0  0  0  0  0  0  0
   -1.1394  -19.2504   -6.1690 H   0  0  0  0  0  0  0  0  0  0  0  0
   -3.7463  -24.8369   -7.0302 H   0  0  0  0  0  0  0  0  0  0  0  0
   -0.3508  -27.2205   -2.2091 H   0  0  0  0  0  0  0  0  0  0  0  0
    1.1998  -21.2790   -0.4950 H   0  0  0  0  0  0  0  0  0  0  0  0
   -3.0827  -24.1747   -9.1927 H   0  0  0  0  0  0  0  0  0  0  0  0
   -3.4350  -22.5436   -9.8116 H   0  0  0  0  0  0  0  0  0  0  0  0
   -1.8051  -23.2339   -9.9995 H   0  0  0  0  0  0  0  0  0  0  0  0
   -0.3675  -19.9994   -8.6867 H   0  0  0  0  0  0  0  0  0  0  0  0
   -1.4739  -20.7504   -9.8430 H   0  0  0  0  0  0  0  0  0  0  0  0
   -2.5573  -18.8330   -7.8079 H   0  0  0  0  0  0  0  0  0  0  0  0
   -1.6816  -18.2100   -9.2246 H   0  0  0  0  0  0  0  0  0  0  0  0
   -4.1013  -26.9834   -7.0023 H   0  0  0  0  0  0  0  0  0  0  0  0
   -4.1763  -28.3184   -5.8276 H   0  0  0  0  0  0  0  0  0  0  0  0
   -2.8712  -28.2693   -7.0370 H   0  0  0  0  0  0  0  0  0  0  0  0
   -1.9147  -28.8965   -2.7501 H   0  0  0  0  0  0  0  0  0  0  0  0
   -1.7993  -29.5589   -5.7088 H   0  0  0  0  0  0  0  0  0  0  0  0
   -1.7467  -30.7407   -4.2597 H   0  0  0  0  0  0  0  0  0  0  0  0
    0.6364  -27.4118   -0.3192 H   0  0  0  0  0  0  0  0  0  0  0  0
    2.1468  -26.6888    0.2838 H   0  0  0  0  0  0  0  0  0  0  0  0
    0.6299  -26.4645    1.1877 H   0  0  0  0  0  0  0  0  0  0  0  0
    1.4307  -23.1440    1.7634 H   0  0  0  0  0  0  0  0  0  0  0  0
    3.7574  -24.2105    0.1379 H   0  0  0  0  0  0  0  0  0  0  0  0
    3.7960  -23.4347    1.8396 H   0  0  0  0  0  0  0  0  0  0  0  0
    1.8851  -17.6453   -1.9076 H   0  0  0  0  0  0  0  0  0  0  0  0
    1.2222  -18.6419   -0.5904 H   0  0  0  0  0  0  0  0  0  0  0  0
    2.7212  -19.1367   -1.4129 H   0  0  0  0  0  0  0  0  0  0  0  0
    0.3160  -17.6414   -5.5758 H   0  0  0  0  0  0  0  0  0  0  0  0
    1.5649  -17.2419   -4.3860 H   0  0  0  0  0  0  0  0  0  0  0  0
   -0.2645  -16.5106   -2.8410 H   0  0  0  0  0  0  0  0  0  0  0  0
   -1.4024  -16.7358   -4.1936 H   0  0  0  0  0  0  0  0  0  0  0  0
  1  5  2  0  0  0  0
  1 32  1  0  0  0  0
  2  8  2  0  0  0  0
  2 15  1  0  0  0  0
  3 18  2  0  0  0  0
  3 22  1  0  0  0  0
  4 25  1  0  0  0  0
  4 29  2  0  0  0  0
  5  6  1  0  0  0  0
  5 40  1  0  0  0  0
  6  7  2  0  0  0  0
  6 10  1  0  0  0  0
  7  8  1  0  0  0  0
  7  9  1  0  0  0  0
  8 40  1  0  0  0  0
 10 11  1  0  0  0  0
 11 12  1  0  0  0  0
 12 13  2  0  0  0  0
 12 14  1  0  0  0  0
 15 16  1  0  0  0  0
 15 41  2  0  0  0  0
 16 17  2  0  0  0  0
 16 19  1  0  0  0  0
 17 18  1  0  0  0  0
 17 20  1  0  0  0  0
 18 41  1  0  0  0  0
 20 21  1  0  0  0  0
 22 23  2  0  0  0  0
 22 42  1  0  0  0  0
 23 24  1  0  0  0  0
 23 26  1  0  0  0  0
 24 25  2  0  0  0  0
 24 27  1  0  0  0  0
 25 42  1  0  0  0  0
 27 28  1  0  0  0  0
 29 30  1  0  0  0  0
 29 43  1  0  0  0  0
 30 31  2  0  0  0  0
 30 33  1  0  0  0  0
 31 32  1  0  0  0  0
 31 34  1  0  0  0  0
 32 43  2  0  0  0  0
 34 35  1  0  0  0  0
 35 36  1  0  0  0  0
 36 37  2  0  0  0  0
 36 38  1  0  0  0  0
 39 43  1  6  0  0  0
 39 41  1  0  0  0  0
 39 40  1  0  0  0  0
 39 42  1  0  0  0  0
 44  1  1  0  0  0  0
 45  2  1  0  0  0  0
 46  3  1  0  0  0  0
 47  4  1  0  0  0  0
 48  9  1  0  0  0  0
 49  9  1  0  0  0  0
 50  9  1  0  0  0  0
 51 10  1  0  0  0  0
 52 10  1  0  0  0  0
 53 11  1  0  0  0  0
 54 11  1  0  0  0  0
 55 19  1  0  0  0  0
 56 19  1  0  0  0  0
 57 19  1  0  0  0  0
 58 20  1  0  0  0  0
 59 21  1  0  0  0  0
 60 21  1  0  0  0  0
 61 26  1  0  0  0  0
 62 26  1  0  0  0  0
 63 26  1  0  0  0  0
 64 27  1  0  0  0  0
 65 28  1  0  0  0  0
 66 28  1  0  0  0  0
 67 33  1  0  0  0  0
 68 33  1  0  0  0  0
 69 33  1  0  0  0  0
 70 34  1  0  0  0  0
 71 34  1  0  0  0  0
 72 35  1  0  0  0  0
 73 35  1  0  0  0  0
M  END
$$$$
