13
5v4h_C_RU7
C         13.85500       -8.13400      -10.68100
C         13.24900       -8.81600      -11.80200
C         11.98200       -8.37400      -12.33600
C         13.14200       -7.05800      -10.15500
C         11.91200       -6.58100      -10.67800
C         11.30100       -7.25900      -11.81200
C          9.95100       -6.78700      -12.28200
Ru        11.72900       -8.73100      -10.22000
Cl        11.14000      -11.02500      -10.52400
Cl         9.43300       -8.47700       -9.43900
C         16.16200       -7.55400       -9.55700
C         15.23300       -8.51600      -10.18600
C         16.02100       -9.39200      -11.20600
