13
5v4h_C_RU7
C          6.55500      -10.17700      -10.50100
C          6.70900       -8.74100      -10.56700
C          6.16400       -7.89300       -9.53300
C          5.84900      -10.67200       -9.40600
C          5.33000       -9.86700       -8.35800
C          5.48900       -8.42100       -8.41600
C          4.84500       -7.58900       -7.33900
Ru         4.56600       -9.13300      -10.29300
Cl         3.96000       -7.57100      -11.99500
Cl         2.37700       -8.61600       -9.35200
C          6.54500      -11.54500      -12.74800
C          7.21800      -11.08200      -11.51700
C          7.96200      -12.28400      -10.86100
