13
5v4h_C_RU7
C          9.72400       -9.57600       -9.89200
C          9.46700       -8.21700      -10.31000
C         10.10500       -7.67500      -11.48700
C         10.61800      -10.30400      -10.67500
C         11.23600       -9.81000      -11.85300
C         10.97500       -8.44400      -12.28400
C         11.71800       -7.92000      -13.48300
Ru        11.64800       -8.43500      -10.17900
Cl        11.88500       -6.36600       -9.00900
Cl        13.91500       -7.99500      -10.96000
C          9.49200      -11.33500       -7.94900
C          8.97600      -10.19100       -8.72900
C          7.46600      -10.42400       -9.03600
