13
5v4h_C_RU7
C         10.07300       -7.90200       -8.08300
C          9.73500       -7.29000       -9.34900
C          8.99900       -8.02700      -10.34900
C          9.66300       -9.22100       -7.90600
C          8.91100       -9.96000       -8.85600
C          8.56100       -9.34700      -10.13000
C          7.84600      -10.18900      -11.15300
Ru        10.74200       -9.18600       -9.81200
Cl        12.11900       -8.16300      -11.47400
Cl        11.03300      -11.21100      -11.13800
C         12.02200       -6.38700       -7.17100
C         10.74400       -7.10500       -6.98500
C         10.77900       -7.86200       -5.62300
