13
5v4h_C_RU7
C         11.31000      -11.03100       -2.32700
C         11.03700       -9.62200       -2.67600
C         11.23200       -8.73700       -1.40800
C          9.85500       -9.19100       -3.51700
C          9.96500       -9.07300       -4.95400
C          8.64200       -8.79600       -2.95600
Ru         8.12800      -10.20700       -4.55200
C          8.86600       -8.55700       -5.73700
C          7.55700       -8.25600       -3.69500
Cl         8.64800      -11.83500       -6.22000
Cl         5.80800      -10.80100       -5.01600
C          7.66400       -8.12800       -5.14100
C          6.46200       -7.64100       -5.90500
