30
4hhg_C_DRU.xyz
Ru        10.10000      -19.61700      -15.12600
N         10.89800      -18.02400      -14.78000
C         10.46000      -16.85700      -15.35000
C         11.10000      -15.66200      -15.09600
C         12.25200      -15.68000      -14.28900
C         12.65100      -16.90300      -13.75000
C         11.98200      -18.11000      -14.05600
C         12.19500      -19.56500      -13.60200
C         13.22000      -20.09300      -12.78700
C         13.24200      -21.46500      -12.52500
C         12.29200      -22.29800      -13.03600
C         11.30800      -21.76500      -13.83900
N         11.28600      -20.47500      -14.07000
N         11.07800      -19.96300      -16.63100
C         11.96500      -19.12700      -17.11200
C         12.66100      -19.44800      -18.28600
C         12.39800      -20.63200      -18.97100
C         11.43500      -21.51200      -18.45200
C         10.81300      -21.13700      -17.24700
C          9.75700      -21.88700      -16.52700
C          9.25200      -23.11400      -16.98800
C          8.31200      -23.74400      -16.22000
C          7.89400      -23.13400      -15.07400
C          8.42000      -21.90500      -14.66300
N          9.29100      -21.24700      -15.43600
C          7.56800      -18.79400      -16.53800
C          7.11700      -17.52500      -16.90200
N          8.94800      -18.58300      -16.13500
C          9.19500      -17.12700      -16.13200
N          8.07000      -16.54700      -16.66700
