11
RU7
C        -32.50400      -22.44500       28.49100
C        -33.00200      -23.37500       27.52200
C        -34.34100      -23.40300       27.16700
C        -33.42100      -21.58200       29.06500
C        -34.80000      -21.63100       28.70200
C        -35.28400      -22.53300       27.74800
C        -36.73400      -22.57400       27.36800
Ru       -34.21300      -23.62700       29.32200
C        -30.62400      -21.01200       29.08200
C        -31.01900      -22.45300       28.84500
C        -30.64100      -23.33000       30.00900
