11
RU7
C        -32.46100      -21.78100       20.28300
C        -33.88500      -21.88600       20.18400
C        -34.64500      -22.41800       21.21400
C        -31.87300      -22.24400       21.44700
C        -32.66500      -22.80500       22.49400
C        -34.05800      -22.89700       22.40200
C        -34.88300      -23.48300       23.50800
Ru       -33.13700      -23.88000       20.66700
C        -32.56500      -20.14600       18.47900
C        -31.67100      -21.18400       19.12100
C        -30.32800      -20.60800       19.48600
