11
RU7
C        -32.56000      -22.91800       28.39100
C        -32.92800      -23.90200       27.41800
C        -34.20300      -23.94300       26.87500
C        -33.53600      -22.01500       28.77400
C        -34.85000      -22.07700       28.21900
C        -35.20600      -23.03100       27.26000
C        -36.58600      -23.08600       26.67800
Ru       -34.39000      -24.03500       29.03500
C        -30.23100      -22.47500       27.83100
C        -31.14200      -22.91500       28.95600
C        -30.94300      -22.07600       30.19000
