15
C19H15N3O5RuS optimized with DFTB in AMS.
H         -7.36120        8.65540       -2.16650
C         -8.20100        9.04200       -2.74400
C         -7.65100        9.45400       -4.15300
C         -9.36100        8.02800       -2.60900
H         -6.58720        9.21660       -4.15800
C         -8.25700        8.82300       -5.43100
H         -8.99760        7.21060       -1.98630
C         -9.96800        7.38500       -3.89500
H         -7.44500        8.35280       -5.98570
C         -9.41200        7.77300       -5.29500
H         -9.88140        6.30310       -3.79460
H         -9.05180        6.85210       -5.75360
Ru        -9.82100        9.54100       -4.10600
Cl        -9.90600       11.20200       -5.78900
Cl       -12.18300        9.52000       -4.70300
