LRU
 OpenBabel08162216593D

 50 56  0  0  1  0  0  0  0  0999 V2000
   18.9160   11.1830   16.8590 Ru  0  0  0  0  0  0  0  0  0  0  0  0
   18.8600   13.1640   17.4680 N   0  3  0  0  0  0  0  0  0  0  0  0
   17.9420   14.0700   17.0600 C   0  0  0  0  0  0  0  0  0  0  0  0
   17.9430   15.3870   17.5150 C   0  0  0  0  0  0  0  0  0  0  0  0
   18.9310   15.7450   18.4080 C   0  0  0  0  0  0  0  0  0  0  0  0
   19.8600   14.8350   18.8240 C   0  0  0  0  0  0  0  0  0  0  0  0
   19.8320   13.5240   18.3380 C   0  0  0  0  0  0  0  0  0  0  0  0
   20.7570   12.4560   18.6900 C   0  0  0  0  0  0  0  0  0  0  0  0
   21.7930   12.6380   19.5670 C   0  0  0  0  0  0  0  0  0  0  0  0
   22.6390   11.5840   19.8490 C   0  0  0  0  0  0  0  0  0  0  0  0
   22.4030   10.3510   19.2400 C   0  0  0  0  0  0  0  0  0  0  0  0
   21.3620   10.2100   18.3740 C   0  0  0  0  0  0  0  0  0  0  0  0
   20.5470   11.2530   18.1000 N   0  3  0  0  0  0  0  0  0  0  0  0
   17.7670   10.3850   18.4340 N   0  3  0  0  0  0  0  0  0  0  0  0
   17.1810   11.0860   19.4490 C   0  0  0  0  0  0  0  0  0  0  0  0
   16.4440   10.4610   20.4960 C   0  0  0  0  0  0  0  0  0  0  0  0
   16.2930    9.0600   20.4890 C   0  0  0  0  0  0  0  0  0  0  0  0
   16.8850    8.3630   19.4580 C   0  0  0  0  0  0  0  0  0  0  0  0
   17.6140    9.0270   18.4280 C   0  0  0  0  0  0  0  0  0  0  0  0
   18.2670    8.3500   17.3170 C   0  0  0  0  0  0  0  0  0  0  0  0
   18.2090    6.9590   17.1710 C   0  0  0  0  0  0  0  0  0  0  0  0
   18.8330    6.3710   16.1080 C   0  0  0  0  0  0  0  0  0  0  0  0
   19.5230    7.1550   15.2010 C   0  0  0  0  0  0  0  0  0  0  0  0
   19.5640    8.5330   15.3780 C   0  0  0  0  0  0  0  0  0  0  0  0
   18.9410    9.1370   16.4400 N   0  3  0  0  0  0  0  0  0  0  0  0
   19.8300   12.8060   14.3570 C   0  0  0  0  0  0  0  0  0  0  0  0
   20.9410   13.0150   13.6180 C   0  0  0  0  0  0  0  0  0  0  0  0
   20.0010   11.7330   15.2030 N   0  0  1  0  0  0  0  0  0  0  0  0
   21.2300   11.3330   14.9360 C   0  0  0  0  0  0  0  0  0  0  0  0
   21.8340   12.0520   14.0080 N   0  0  0  0  0  0  0  0  0  0  0  0
   17.1820   13.7618   16.3573 H   0  0  0  0  0  0  0  0  0  0  0  0
   17.2010   16.0977   17.1822 H   0  0  0  0  0  0  0  0  0  0  0  0
   18.9704   16.7571   18.7827 H   0  0  0  0  0  0  0  0  0  0  0  0
   20.6205   15.1292   19.5321 H   0  0  0  0  0  0  0  0  0  0  0  0
   21.9471   13.5992   20.0347 H   0  0  0  0  0  0  0  0  0  0  0  0
   23.4685   11.7116   20.5287 H   0  0  0  0  0  0  0  0  0  0  0  0
   23.0452    9.5098   19.4553 H   0  0  0  0  0  0  0  0  0  0  0  0
   21.1856    9.2552   17.9012 H   0  0  0  0  0  0  0  0  0  0  0  0
   17.2806   12.1614   19.4585 H   0  0  0  0  0  0  0  0  0  0  0  0
   16.0063   11.0539   21.2855 H   0  0  0  0  0  0  0  0  0  0  0  0
   15.7349    8.5521   21.2617 H   0  0  0  0  0  0  0  0  0  0  0  0
   16.7945    7.2872   19.4295 H   0  0  0  0  0  0  0  0  0  0  0  0
   17.6760    6.3568   17.8919 H   0  0  0  0  0  0  0  0  0  0  0  0
   18.7880    5.3000   15.9763 H   0  0  0  0  0  0  0  0  0  0  0  0
   20.0264    6.6995   14.3611 H   0  0  0  0  0  0  0  0  0  0  0  0
   20.0983    9.1415   14.6634 H   0  0  0  0  0  0  0  0  0  0  0  0
   18.9300   13.3996   14.2931 H   0  0  0  0  0  0  0  0  0  0  0  0
   21.0938   13.7825   12.8737 H   0  0  0  0  0  0  0  0  0  0  0  0
   21.6983   10.4950   15.4309 H   0  0  0  0  0  0  0  0  0  0  0  0
   22.7707   11.9183   13.6548 H   0  0  0  0  0  0  0  0  0  0  0  0
  1 14  1  0  0  0  0
  1 28  1  0  0  0  0
  1 13  1  0  0  0  0
  1  2  1  0  0  0  0
  1 25  1  0  0  0  0
  2  3  2  0  0  0  0
  2  7  1  0  0  0  0
  3  4  1  0  0  0  0
  4  5  2  0  0  0  0
  5  6  1  0  0  0  0
  6  7  2  0  0  0  0
  7  8  1  0  0  0  0
  8 13  2  0  0  0  0
  8  9  1  0  0  0  0
  9 10  2  0  0  0  0
 10 11  1  0  0  0  0
 11 12  2  0  0  0  0
 12 13  1  0  0  0  0
 14 19  2  0  0  0  0
 14 15  1  0  0  0  0
 15 16  2  0  0  0  0
 16 17  1  0  0  0  0
 17 18  2  0  0  0  0
 18 19  1  0  0  0  0
 19 20  1  0  0  0  0
 20 25  2  0  0  0  0
 20 21  1  0  0  0  0
 21 22  2  0  0  0  0
 22 23  1  0  0  0  0
 23 24  2  0  0  0  0
 24 25  1  0  0  0  0
 26 27  1  0  0  0  0
 27 30  1  0  0  0  0
 28 26  1  1  0  0  0
 28 29  1  0  0  0  0
 29 30  1  0  0  0  0
 31  3  1  0  0  0  0
 32  4  1  0  0  0  0
 33  5  1  0  0  0  0
 34  6  1  0  0  0  0
 35  9  1  0  0  0  0
 36 10  1  0  0  0  0
 37 11  1  0  0  0  0
 38 12  1  0  0  0  0
 39 15  1  0  0  0  0
 40 16  1  0  0  0  0
 41 17  1  0  0  0  0
 42 18  1  0  0  0  0
 43 21  1  0  0  0  0
 44 22  1  0  0  0  0
 45 23  1  0  0  0  0
 46 24  1  0  0  0  0
 47 26  1  0  0  0  0
 48 27  1  0  0  0  0
 49 29  1  0  0  0  0
 50 30  1  0  0  0  0
M  CHG  4   2   1  13   1  14   1  25   1
M  END
$$$$
