4hhg_C_DRU.xyz
 OpenBabel08192209483D

 47 54  0  0  1  0  0  0  0  0999 V2000
   10.1340  -19.7210  -14.6220 Ru  0  0  0  0  0  0  0  0  0  0  0  0
   11.1170  -18.2940  -14.0840 N   0  0  0  0  0  0  0  0  0  0  0  0
   10.9080  -17.0370  -14.5940 C   0  0  0  0  0  0  0  0  0  0  0  0
   11.6870  -15.9740  -14.1910 C   0  0  0  0  0  0  0  0  0  0  0  0
   12.7440  -16.2200  -13.2960 C   0  0  0  0  0  0  0  0  0  0  0  0
   12.9090  -17.5220  -12.8250 C   0  0  0  0  0  0  0  0  0  0  0  0
   12.1040  -18.5910  -13.2820 C   0  0  0  0  0  0  0  0  0  0  0  0
   12.0610  -20.0880  -12.9290 C   0  0  2  0  0  0  0  0  0  0  0  0
   12.9170  -20.8180  -12.0770 C   0  0  0  0  0  0  0  0  0  0  0  0
   12.7150  -22.1920  -11.9240 C   0  0  0  0  0  0  0  0  0  0  0  0
   11.7070  -22.8360  -12.5780 C   0  0  0  0  0  0  0  0  0  0  0  0
   10.8910  -22.1080  -13.4140 C   0  0  0  0  0  0  0  0  0  0  0  0
   11.0780  -20.8160  -13.5430 N   0  0  0  0  0  0  0  0  0  0  0  0
   11.1880  -20.1090  -16.0620 N   0  0  0  0  0  0  0  0  0  0  0  0
   12.2290  -19.3860  -16.3990 C   0  0  0  0  0  0  0  0  0  0  0  0
   12.9780  -19.7300  -17.5340 C   0  0  0  0  0  0  0  0  0  0  0  0
   12.6130  -20.8120  -18.3310 C   0  0  0  0  0  0  0  0  0  0  0  0
   11.4870  -21.5690  -17.9660 C   0  0  0  0  0  0  0  0  0  0  0  0
   10.8150  -21.1850  -16.7910 C   0  0  0  0  0  0  0  0  0  0  0  0
    9.5990  -21.8140  -16.2230 C   0  0  0  0  0  0  0  0  0  0  0  0
    8.9680  -22.9160  -16.8220 C   0  0  0  0  0  0  0  0  0  0  0  0
    7.8790  -23.4470  -16.1880 C   0  0  0  0  0  0  0  0  0  0  0  0
    7.4460  -22.8590  -15.0360 C   0  0  0  0  0  0  0  0  0  0  0  0
    8.1040  -21.7540  -14.4850 C   0  0  0  0  0  0  0  0  0  0  0  0
    9.1300  -21.1860  -15.1280 N   0  0  0  0  0  0  0  0  0  0  0  0
    7.8910  -18.4320  -16.1690 C   0  0  0  0  0  0  0  0  0  0  0  0
    7.6650  -17.0880  -16.4660 C   0  0  0  0  0  0  0  0  0  0  0  0
    9.2430  -18.4590  -15.6380 N   0  0  0  0  0  0  0  0  0  0  0  0
    9.6970  -17.0610  -15.4970 C   0  0  0  0  0  0  0  0  0  0  0  0
    8.7230  -16.2820  -16.0750 N   0  0  0  0  0  0  0  0  0  0  0  0
    6.7702  -16.7184  -16.9447 H   0  0  0  0  0  0  0  0  0  0  0  0
   11.4906  -14.9759  -14.5537 H   0  0  0  0  0  0  0  0  0  0  0  0
   13.4063  -15.4261  -12.9838 H   0  0  0  0  0  0  0  0  0  0  0  0
   13.6744  -17.7199  -12.0892 H   0  0  0  0  0  0  0  0  0  0  0  0
   13.7180  -20.3209  -11.5500 H   0  0  0  0  0  0  0  0  0  0  0  0
   13.3699  -22.7547  -11.2752 H   0  0  0  0  0  0  0  0  0  0  0  0
   11.5518  -23.8962  -12.4429 H   0  0  0  0  0  0  0  0  0  0  0  0
   10.0999  -22.5986  -13.9616 H   0  0  0  0  0  0  0  0  0  0  0  0
   12.5086  -18.5287  -15.8047 H   0  0  0  0  0  0  0  0  0  0  0  0
   13.8498  -19.1477  -17.7933 H   0  0  0  0  0  0  0  0  0  0  0  0
   13.1841  -21.0643  -19.2122 H   0  0  0  0  0  0  0  0  0  0  0  0
   11.1528  -22.4069  -18.5599 H   0  0  0  0  0  0  0  0  0  0  0  0
    9.3302  -23.3300  -17.7514 H   0  0  0  0  0  0  0  0  0  0  0  0
    7.3733  -24.3123  -16.5903 H   0  0  0  0  0  0  0  0  0  0  0  0
    6.5742  -23.2559  -14.5371 H   0  0  0  0  0  0  0  0  0  0  0  0
    7.7812  -21.3570  -13.5339 H   0  0  0  0  0  0  0  0  0  0  0  0
    7.2148  -19.2633  -16.3032 H   0  0  0  0  0  0  0  0  0  0  0  0
  1  2  1  0  0  0  0
  1 13  1  0  0  0  0
  2  7  1  0  0  0  0
  3  4  2  0  0  0  0
  3  2  1  0  0  0  0
  4  5  1  0  0  0  0
  5 33  1  0  0  0  0
  5  6  1  0  0  0  0
  6 34  1  0  0  0  0
  7  6  2  0  0  0  0
  8  7  1  6  0  0  0
  8  9  1  0  0  0  0
  9 10  2  0  0  0  0
  9 35  1  0  0  0  0
 10 36  1  0  0  0  0
 11 37  1  0  0  0  0
 11 10  1  0  0  0  0
 12 11  2  0  0  0  0
 13 12  1  0  0  0  0
 13  8  1  0  0  0  0
 14  1  1  0  0  0  0
 15 14  1  0  0  0  0
 15 39  1  0  0  0  0
 16 15  2  0  0  0  0
 17 18  1  0  0  0  0
 17 16  1  0  0  0  0
 18 19  2  0  0  0  0
 19 20  1  0  0  0  0
 19 14  1  0  0  0  0
 20 25  1  0  0  0  0
 21 20  2  0  0  0  0
 21 22  1  0  0  0  0
 22 23  1  0  0  0  0
 23 45  1  0  0  0  0
 23 24  2  0  0  0  0
 24 46  1  0  0  0  0
 25  1  1  0  0  0  0
 25 24  1  0  0  0  0
 26 28  1  0  0  0  0
 27 26  2  0  0  0  0
 27 30  1  0  0  0  0
 28 29  1  0  0  0  0
 28  1  1  0  0  0  0
 29  3  1  0  0  0  0
 30 29  2  0  0  0  0
 31 27  1  0  0  0  0
 32  4  1  0  0  0  0
 38 12  1  0  0  0  0
 40 16  1  0  0  0  0
 41 17  1  0  0  0  0
 42 18  1  0  0  0  0
 43 21  1  0  0  0  0
 44 22  1  0  0  0  0
 47 26  1  0  0  0  0
M  RAD  4   5   2   8   2  17   2  22   2
M  END
$$$$
