C19H15N3O5RuS optimized with DFTB in AMS.
 OpenBabel10032217003D

 44 50  0  0  0  0  0  0  0  0999 V2000
    2.8888    2.2557   -1.3352 H   0  0  0  0  0  0  0  0  0  0  0  0
    1.9781    1.7220   -1.0953 C   0  0  0  0  0  0  0  0  0  0  0  0
    1.9660    0.3398   -1.0175 C   0  0  0  0  0  0  0  0  0  0  0  0
    0.7933    2.4038   -0.8764 C   0  0  0  0  0  0  0  0  0  0  0  0
    2.8609   -0.2384   -1.2064 H   0  0  0  0  0  0  0  0  0  0  0  0
    0.7891   -0.3172   -0.6792 C   0  0  0  0  0  0  0  0  0  0  0  0
    0.7484    3.4821   -0.9543 H   0  0  0  0  0  0  0  0  0  0  0  0
   -0.3609    1.6950   -0.5658 C   0  0  0  0  0  0  0  0  0  0  0  0
    0.6445   -1.7475   -0.5311 C   0  0  0  0  0  0  0  0  0  0  0  0
   -0.3531    0.3538   -0.4350 N   0  0  0  0  0  0  0  0  0  0  0  0
   -1.6793    2.2717   -0.4265 C   0  0  0  0  0  0  0  0  0  0  0  0
    1.5861   -2.7237   -0.8400 C   0  0  0  0  0  0  0  0  0  0  0  0
   -0.5543   -2.0868   -0.0328 N   0  0  0  0  0  0  0  0  0  0  0  0
   -2.0864   -0.6646    0.1886 Ru  0  0  0  0  0  0  0  0  0  0  0  0
   -2.0250    3.6148   -0.5422 C   0  0  0  0  0  0  0  0  0  0  0  0
   -2.6229    1.3427   -0.2204 N   0  0  0  0  0  0  0  0  0  0  0  0
    2.5451   -2.4276   -1.2453 H   0  0  0  0  0  0  0  0  0  0  0  0
    1.2874   -4.0604   -0.6266 C   0  0  0  0  0  0  0  0  0  0  0  0
   -0.8385   -3.3698    0.1981 C   0  0  0  0  0  0  0  0  0  0  0  0
   -2.6862   -2.3530    1.0775 O   0  0  0  0  0  0  0  0  0  0  0  0
   -4.0412   -0.5406    0.2698 O   0  0  0  0  0  0  0  0  0  0  0  0
   -1.6330   -0.0079    2.3632 S   0  0  0  0  0  0  0  0  0  0  0  0
   -1.2483    4.3530   -0.6943 H   0  0  0  0  0  0  0  0  0  0  0  0
   -3.3564    3.9922   -0.4670 C   0  0  0  0  0  0  0  0  0  0  0  0
   -3.9033    1.6983   -0.1489 C   0  0  0  0  0  0  0  0  0  0  0  0
    2.0116   -4.8292   -0.8655 H   0  0  0  0  0  0  0  0  0  0  0  0
    0.0527   -4.3889   -0.0849 C   0  0  0  0  0  0  0  0  0  0  0  0
   -2.1734   -3.5185    0.8860 C   0  0  0  0  0  0  0  0  0  0  0  0
   -4.7839    0.4967    0.0816 C   0  0  0  0  0  0  0  0  0  0  0  0
   -0.2910   -0.9115    3.1233 C   0  0  0  0  0  0  0  0  0  0  0  0
   -3.0769   -0.2842    3.3786 C   0  0  0  0  0  0  0  0  0  0  0  0
   -1.2979    1.4121    2.3704 O   0  0  0  0  0  0  0  0  0  0  0  0
    0.6080   -0.7292    2.5420 H   0  0  0  0  0  0  0  0  0  0  0  0
   -0.5514   -1.9651    3.1331 H   0  0  0  0  0  0  0  0  0  0  0  0
   -0.1821   -0.5199    4.1319 H   0  0  0  0  0  0  0  0  0  0  0  0
   -3.8601    0.3787    3.0226 H   0  0  0  0  0  0  0  0  0  0  0  0
   -3.3667   -1.3260    3.2737 H   0  0  0  0  0  0  0  0  0  0  0  0
   -2.8017   -0.0460    4.4028 H   0  0  0  0  0  0  0  0  0  0  0  0
   -3.6366    5.0347   -0.5518 H   0  0  0  0  0  0  0  0  0  0  0  0
   -4.3201    3.0099   -0.2853 C   0  0  0  0  0  0  0  0  0  0  0  0
   -0.2374   -5.4098    0.1306 H   0  0  0  0  0  0  0  0  0  0  0  0
   -2.6300   -4.5733    1.2464 O   0  0  0  0  0  0  0  0  0  0  0  0
   -5.9870    0.5269    0.0785 O   0  0  0  0  0  0  0  0  0  0  0  0
   -5.3787    3.2320   -0.2329 H   0  0  0  0  0  0  0  0  0  0  0  0
  1  2  1  0  0  0  0
  2  3  1  0  0  0  0
  2  4  1  0  0  0  0
  3  6  2  0  0  0  0
  4  8  2  0  0  0  0
  5  3  1  0  0  0  0
  6  9  1  0  0  0  0
  6 10  1  0  0  0  0
  7  4  1  0  0  0  0
  8 10  1  0  0  0  0
  8 11  1  0  0  0  0
  9 13  1  0  0  0  0
 10 14  1  0  0  0  0
 11 16  1  0  0  0  0
 12 18  1  0  0  0  0
 12  9  2  0  0  0  0
 13 14  1  0  0  0  0
 13 19  1  0  0  0  0
 14 21  1  0  0  0  0
 14 20  1  0  0  0  0
 14 22  1  0  0  0  0
 15 24  1  0  0  0  0
 15 11  2  0  0  0  0
 16 25  1  0  0  0  0
 16 14  1  0  0  0  0
 17 12  1  0  0  0  0
 18 27  1  0  0  0  0
 19 28  1  0  0  0  0
 22 32  1  0  0  0  0
 22 30  1  0  0  0  0
 22 31  1  0  0  0  0
 23 15  1  0  0  0  0
 24 40  1  0  0  0  0
 25 29  1  0  0  0  0
 26 18  1  0  0  0  0
 27 41  1  0  0  0  0
 27 19  2  0  0  0  0
 28 20  1  0  0  0  0
 28 42  2  0  0  0  0
 29 21  1  0  0  0  0
 30 34  1  0  0  0  0
 30 35  1  0  0  0  0
 31 38  1  0  0  0  0
 33 30  1  0  0  0  0
 36 31  1  0  0  0  0
 37 31  1  0  0  0  0
 39 24  1  0  0  0  0
 40 44  1  0  0  0  0
 40 25  2  0  0  0  0
 43 29  2  0  0  0  0
M  RAD  1  32   2
M  END
$$$$
