33
RTB
Ru        18.76600       10.01800       18.43600
N         20.13700        9.35900       19.69000
N         19.76500       11.64200       17.95700
N         17.79300        8.34500       19.01500
N         18.16100       11.24800       19.91200
N         19.71200        9.34800       16.80800
C         21.31900        9.96700       19.94800
C         22.22300        9.44600       20.83200
C         21.89900        8.24600       21.48200
C         20.69300        7.63300       21.20700
C         19.83100        8.22000       20.30600
C         19.63500       12.74300       18.72400
C         20.32900       13.89000       18.40700
C         21.15300       13.87900       17.29100
C         21.28400       12.71800       16.49200
C         20.54600       11.60000       16.89200
C         16.61200        7.82600       18.66700
C         16.12100        6.63100       19.23200
C         16.88400        5.95900       20.14900
C         18.11300        6.47400       20.52300
C         18.56900        7.65500       19.94300
C         18.72400       12.52600       19.83300
C         17.29800       10.98700       20.92000
C         16.94200       11.94300       21.88400
C         17.50100       13.19700       21.80200
C         18.38000       13.50100       20.79100
C         20.52100       10.28600       16.20600
C         19.64400        8.09700       16.23200
C         20.35100        7.76400       15.12100
C         21.15800        8.72300       14.53100
C         21.25500        9.98600       15.08200
C         19.01400        5.85400       21.49700
C         20.23000        6.40200       21.82400
