33
RTB
Ru        19.30200       11.59400       17.34800
N         20.87400       12.37600       18.24400
N         18.03200       12.17600       18.73200
N         20.68100       11.00300       15.99500
N         19.46500       10.05700       18.64000
N         18.71100       13.32300       16.53800
C         20.84700       13.07700       19.40100
C         21.98300       13.59300       19.96200
C         23.20400       13.37800       19.30500
C         23.21700       12.66600       18.12200
C         22.03200       12.17400       17.62000
C         17.84000       11.39700       19.81500
C         16.95700       11.78900       20.79800
C         16.28100       12.99000       20.64000
C         16.49100       13.80200       19.50000
C         17.40800       13.32700       18.55800
C         20.58400       10.31700       14.85300
C         21.71200        9.99900       14.07000
C         22.95000       10.42500       14.47100
C         23.07700       11.14000       15.64900
C         21.94100       11.44000       16.39600
C         18.64800       10.19200       19.76700
C         20.23700        8.95100       18.53400
C         20.24700        7.93500       19.50300
C         19.44400        8.07600       20.61000
C         18.64400        9.18400       20.75200
C         17.77700       14.00100       17.28900
C         19.11000       13.89200       15.34800
C         18.63400       15.08700       14.91200
C         17.69500       15.75300       15.68300
C         17.27300       15.21500       16.88400
C         24.34400       11.64100       16.18500
C         24.41200       12.35800       17.35500
