33
RTB
Ru        18.58200       12.40500       17.52100
N         19.97300       13.19900       18.67100
N         17.47400       14.02900       17.47800
N         19.76200       10.77100       17.65200
N         17.50100       12.13500       19.20000
N         19.28300       13.23000       15.84100
C         19.97800       14.47400       19.12600
C         20.98300       14.95500       19.92000
C         22.02900       14.08700       20.26500
C         22.01500       12.79100       19.79000
C         20.96700       12.37700       18.99600
C         16.58100       14.24000       18.46500
C         15.79700       15.37400       18.45400
C         15.95300       16.27700       17.41300
C         16.89500       16.04800       16.38200
C         17.64900       14.87400       16.47800
C         19.66200        9.54500       17.13000
C         20.61900        8.54100       17.38200
C         21.70300        8.82800       18.16600
C         21.83200       10.09200       18.71700
C         20.87100       11.06200       18.44400
C         16.58900       13.16700       19.44300
C         17.55100       11.10300       20.07200
C         16.72500       11.02300       21.20400
C         15.83300       12.04300       21.43900
C         15.75100       13.10700       20.57400
C         18.68200       14.42500       15.51300
C         20.26000       12.75200       14.99500
C         20.65400       13.42000       13.88000
C         20.03700       14.62000       13.56800
C         19.05400       15.13300       14.39400
C         22.94000       10.51600       19.57600
C         23.02400       11.78900       20.08600
