33
RTB
Ru        18.19500       10.05100       18.70700
N         19.17800        9.17900       20.17700
N         19.80800       10.79100       17.86200
N         16.58900        9.28500       19.66300
N         18.37700       11.76700       19.74600
N         18.56700        8.59500       17.38900
C         20.52300        9.18500       20.33000
C         21.13400        8.55400       21.37800
C         20.32900        7.88700       22.31300
C         18.95800        7.88400       22.14300
C         18.41400        8.54600       21.06300
C         20.28500       11.97800       18.28600
C         21.41700       12.51300       17.70900
C         22.04000       11.80300       16.69300
C         21.53300       10.55700       16.25500
C         20.38300       10.09100       16.90100
C         15.28000        9.32800       19.39900
C         14.32400        8.72300       20.24000
C         14.74200        8.04300       21.35200
C         16.09300        7.98000       21.64600
C         17.01100        8.58600       20.79200
C         19.47500       12.53800       19.35300
C         17.58000       12.23900       20.73100
C         17.80600       13.46900       21.37000
C         18.89000       14.22000       20.98000
C         19.72100       13.77500       19.98200
C         19.67500        8.82300       16.60400
C         17.86000        7.43100       17.17700
C         18.22800        6.51100       16.24700
C         19.34500        6.75900       15.46800
C         20.08100        7.91400       15.65300
C         16.66000        7.29300       22.80700
C         18.01300        7.25100       23.04500
