11
4j8x_L_RU7
C        -33.91300      -22.36100       21.83800
C        -33.00500      -21.90700       20.82400
C        -33.37000      -21.88900       19.48200
C        -35.16400      -22.80100       21.41900
C        -35.52100      -22.79000       20.03400
C        -34.64200      -22.33300       19.04400
C        -35.03400      -22.32500       17.59000
Ru       -33.66500      -23.90000       20.22500
C        -32.43000      -23.43800       23.71600
C        -33.45500      -22.33500       23.30100
C        -34.72300      -22.48800       24.16400
