11
4j8x_L_RU7
C        -30.21600      -21.57000       19.76000
C        -29.56700      -21.31200       18.50600
C        -30.29300      -20.94300       17.37900
C        -31.60000      -21.45500       19.79500
C        -32.33700      -21.08800       18.62400
C        -31.70500      -20.82200       17.40200
C        -32.49400      -20.43300       16.18000
Ru       -31.11000      -22.80700       18.11700
C        -29.49600      -21.03900       22.22700
C        -29.35200      -21.95200       20.96900
C        -27.88600      -21.91300       20.49400
