43
RUR
C         -0.93600      -25.47500       -3.73800
C         -0.90400      -21.54400       -6.47300
C          0.74800      -18.97600       -2.73100
C          1.38500      -23.03100       -0.17800
C         -1.32200      -24.60700       -4.74400
C         -2.34600      -24.78000       -5.74100
C         -2.34000      -23.67700       -6.48900
C         -1.30200      -22.78700       -6.02400
C         -3.25500      -23.37000       -7.65600
C         -0.48900      -20.43100       -5.76100
C         -0.43600      -19.04600       -6.12300
C          0.02300      -18.36100       -5.07500
C          0.27500      -19.25200       -3.99800
C         -0.80800      -18.51300       -7.49600
C          1.12300      -19.75400       -1.65900
C          1.70100      -19.42300       -0.39200
C          1.86900      -20.55000        0.30300
C          1.42000      -21.67000       -0.46300
C          2.06300      -18.01400        0.05900
C          0.78500      -24.12800       -0.79300
C          0.59400      -25.47500       -0.31900
C         -0.12700      -26.25500       -1.42400
C         -0.32800      -25.31000       -2.49900
C          1.02900      -25.99600        1.03700
Ru         0.02000      -22.27000       -3.19700
N         -0.73700      -23.43600       -5.00500
N         -0.06100      -20.43000       -4.50300
N          1.02200      -21.07300       -1.56500
N          0.24400      -24.18400       -2.02400
C          0.27300      -16.87200       -4.95200
C          1.09400      -16.27800       -5.77700
C          2.45200      -20.70000        1.69400
C          3.69200      -21.08900        1.85500
C         -3.29700      -25.98500       -5.84100
C         -4.04700      -26.34000       -4.57000
C         -4.49700      -27.75700       -4.61100
O         -4.05400      -28.55700       -3.84200
O         -5.31500      -28.11100       -5.40700
C         -0.58800      -27.71400       -1.39600
C          0.20200      -28.62900       -2.27700
C         -0.72900      -29.25500       -3.26600
O         -1.93600      -29.08800       -3.15000
O         -0.25300      -29.91200       -4.17000
