43
RUR
C          3.88800      -23.28300       -0.13300
C          1.77000      -19.00800       -0.53700
C         -2.55400      -21.14800       -0.32300
C         -0.45700      -25.36200        0.78300
C          3.71900      -21.96600       -0.51700
C          4.61900      -21.11800       -1.25500
C          4.01700      -19.93500       -1.37500
C          2.74300      -19.97400       -0.69700
C          4.55500      -18.71500       -2.09300
C          0.39000      -19.12200       -0.55400
C         -0.63400      -18.14400       -0.77400
C         -1.81500      -18.76000       -0.70800
C         -1.61600      -20.14400       -0.45900
C         -0.36300      -16.66500       -0.99200
C         -2.48600      -22.48100        0.01600
C         -3.50200      -23.46400        0.23900
C         -2.91000      -24.62200        0.54100
C         -1.49000      -24.46200        0.53700
C         -5.00000      -23.20600        0.15000
C          0.92400      -25.31500        0.60100
C          1.90900      -26.36400        0.65900
C          3.27500      -25.72900        0.37900
C          3.01500      -24.32400        0.16400
C          1.61600      -27.82500        0.93700
Ru         0.65300      -22.27700       -0.11600
N          2.66600      -21.20800       -0.19900
N         -0.29700      -20.24700       -0.39100
N         -1.38400      -23.18900        0.22700
N          1.68000      -24.23300        0.33900
C         -3.20100      -18.16900       -0.86000
C         -3.60700      -17.23600       -0.03800
C         -3.57600      -25.94500        0.86200
C         -4.84400      -25.98800        1.18600
C          5.97200      -21.55500       -1.84300
C          7.19300      -20.84400       -1.29100
C          6.91800      -19.39200       -1.12500
O          7.24700      -18.82200       -0.12700
O          6.37400      -18.77400       -1.99200
C          4.63500      -26.42700        0.29300
C          5.74500      -25.70600        0.99200
C          5.64700      -24.25200        0.66100
O          4.86200      -23.54200        1.27800
O          6.36300      -23.81100       -0.21500
