RU7
 OpenBabel08162216553D

 27 32  0  0  0  0  0  0  0  0999 V2000
  -11.9310    8.5520   16.1410 C   0  0  0  0  0  0  0  0  0  0  0  0
  -11.1950    9.6790   15.4130 C   0  0  0  0  0  0  0  0  0  0  0  0
  -10.9400   10.8380   16.3590 C   0  0  0  0  0  0  0  0  0  0  0  0
   -9.9610    9.1130   14.8010 C   0  0  0  0  0  0  0  0  0  0  0  0
   -8.8660    8.6920   15.5660 C   0  0  0  0  0  0  0  0  0  0  0  0
   -7.7390    8.1420   14.9390 C   0  0  0  0  0  0  0  0  0  0  0  0
   -9.9150    8.9730   13.4200 C   0  0  0  0  0  0  0  0  0  0  0  0
   -8.7940    8.4190   12.7880 C   0  0  0  0  0  0  0  0  0  0  0  0
   -7.7000    8.0070   13.5500 C   0  0  0  0  0  0  0  0  0  0  0  0
   -6.4900    7.4260   12.8540 C   0  0  0  0  0  0  0  0  0  0  0  0
   -8.0970   10.2010   13.8850 Ru  0  0  0  0  0  0  0  0  0  0  0  0
   -5.8030   10.8600   13.4290 Cl  0  0  0  0  0  0  0  0  0  0  0  0
   -8.7240   11.8290   12.3280 Cl  0  0  0  0  0  0  0  0  0  0  0  0
  -11.8373   10.0361   14.6079 H   0  0  0  0  0  0  0  0  0  0  0  0
   -8.8898    8.7912   16.6412 H   0  0  0  0  0  0  0  0  0  0  0  0
   -6.8966    7.8211   15.5337 H   0  0  0  0  0  0  0  0  0  0  0  0
  -10.7560    9.2960   12.8243 H   0  0  0  0  0  0  0  0  0  0  0  0
   -8.7766    8.3111   11.7135 H   0  0  0  0  0  0  0  0  0  0  0  0
   -5.7366    7.1599   13.5954 H   0  0  0  0  0  0  0  0  0  0  0  0
   -6.0776    8.1641   12.1661 H   0  0  0  0  0  0  0  0  0  0  0  0
   -6.7833    6.5354   12.2983 H   0  0  0  0  0  0  0  0  0  0  0  0
  -10.4158   11.6326   15.8280 H   0  0  0  0  0  0  0  0  0  0  0  0
  -11.8909   11.2173   16.7331 H   0  0  0  0  0  0  0  0  0  0  0  0
  -10.3305   10.4967   17.1957 H   0  0  0  0  0  0  0  0  0  0  0  0
  -12.1074    7.7272   15.4506 H   0  0  0  0  0  0  0  0  0  0  0  0
  -11.3245    8.2027   16.9766 H   0  0  0  0  0  0  0  0  0  0  0  0
  -12.8852    8.9233   16.5148 H   0  0  0  0  0  0  0  0  0  0  0  0
  1  2  1  0  0  0  0
  2  3  1  0  0  0  0
  2  4  1  0  0  0  0
  4  5  1  0  0  0  0
  4  7  2  0  0  0  0
  5  6  2  0  0  0  0
  6  9  1  0  0  0  0
  7  8  1  0  0  0  0
  8  9  2  0  0  0  0
  9 10  1  0  0  0  0
 11 13  1  0  0  0  0
 11  9  1  0  0  0  0
 11  7  1  0  0  0  0
 11  5  1  0  0  0  0
 11  6  1  0  0  0  0
 11 12  1  0  0  0  0
 11  8  1  0  0  0  0
 11  4  1  0  0  0  0
 14  2  1  0  0  0  0
 15  5  1  0  0  0  0
 16  6  1  0  0  0  0
 17  7  1  0  0  0  0
 18  8  1  0  0  0  0
 19 10  1  0  0  0  0
 20 10  1  0  0  0  0
 21 10  1  0  0  0  0
 22  3  1  0  0  0  0
 23  3  1  0  0  0  0
 24  3  1  0  0  0  0
 25  1  1  0  0  0  0
 26  1  1  0  0  0  0
 27  1  1  0  0  0  0
M  END
$$$$
