43
RUR
C          3.24100      -23.75700        0.97100
C          1.94300      -23.59800        0.92800
C          1.15300      -24.04600       -0.28500
C          0.68400      -23.12600       -1.27300
C          0.78200      -25.28800       -0.60200
C          0.81600      -21.74600       -1.39000
N          0.06300      -23.94200       -2.09700
C          1.06900      -26.55300        0.19400
C          0.04700      -25.24100       -1.83000
C          0.55900      -20.83700       -2.41500
Ru        -0.80400      -23.15200       -4.02700
C         -0.54600      -26.22700       -2.58500
N         -0.14400      -21.05100       -3.54300
C          0.93500      -19.45400       -2.55100
N         -1.95300      -22.40100       -5.84800
N         -1.66200      -25.19200       -4.48100
C         -1.33600      -26.22500       -3.71800
C         -0.30500      -20.08600       -4.47300
C          0.37400      -18.95400       -3.88800
C          1.74800      -18.66400       -1.54500
C         -1.51000      -21.26400       -6.39200
C         -2.40500      -23.26900       -6.75200
C         -2.44500      -25.45300       -5.52100
C         -1.99300      -27.31100       -4.35500
C         -0.98600      -20.20100       -5.68000
C          0.53100      -17.56400       -4.51000
C         -1.75600      -21.37000       -7.80700
C         -2.88900      -24.52700       -6.45100
C         -2.27200      -22.58100       -8.01500
C         -2.64800      -26.86800       -5.42900
C         -1.90300      -28.72300       -3.81600
C         -0.36800      -16.52000       -3.92600
C          0.02800      -15.19000       -4.48200
O          1.20900      -14.95200       -4.70100
O         -0.84600      -14.37700       -4.70900
C         -1.40200      -20.30000       -8.85300
C         -2.67700      -23.17500       -9.34800
C         -3.51000      -27.66600       -6.39200
C         -1.81100      -29.73300       -4.64300
C         -2.25900      -19.04800       -8.83400
C         -3.47600      -19.23800       -9.66800
O         -3.48000      -20.02800      -10.56400
O         -4.46800      -18.60900       -9.44600
