47
4hhg_C_DRU.xyz
H         13.36990      -22.75470      -11.27520
C         12.71500      -22.19200      -11.92400
C         11.70700      -22.83600      -12.57800
C         12.91700      -20.81800      -12.07700
H         11.55180      -23.89620      -12.44290
C         10.89100      -22.10800      -13.41400
H         13.71800      -20.32090      -11.55000
C         12.06100      -20.08800      -12.92900
H         10.09990      -22.59860      -13.96160
N         11.07800      -20.81600      -13.54300
C         12.10400      -18.59100      -13.28200
Ru        10.13400      -19.72100      -14.62200
C         12.90900      -17.52200      -12.82500
N         11.11700      -18.29400      -14.08400
N         11.18800      -20.10900      -16.06200
N          9.13000      -21.18600      -15.12800
N          9.24300      -18.45900      -15.63800
H         13.67440      -17.71990      -12.08920
C         12.74400      -16.22000      -13.29600
C         10.90800      -17.03700      -14.59400
C         12.22900      -19.38600      -16.39900
C         10.81500      -21.18500      -16.79100
C          8.10400      -21.75400      -14.48500
C          9.59900      -21.81400      -16.22300
C          7.89100      -18.43200      -16.16900
C          9.69700      -17.06100      -15.49700
H         13.40630      -15.42610      -12.98380
C         11.68700      -15.97400      -14.19100
H         12.50860      -18.52870      -15.80470
C         12.97800      -19.73000      -17.53400
C         11.48700      -21.56900      -17.96600
H          7.78120      -21.35700      -13.53390
C          7.44600      -22.85900      -15.03600
C          8.96800      -22.91600      -16.82200
H          7.21480      -19.26330      -16.30320
C          7.66500      -17.08800      -16.46600
N          8.72300      -16.28200      -16.07500
H         11.49060      -14.97590      -14.55370
H         13.84980      -19.14770      -17.79330
C         12.61300      -20.81200      -18.33100
H         11.15280      -22.40690      -18.55990
H          6.57420      -23.25590      -14.53710
C          7.87900      -23.44700      -16.18800
H          9.33020      -23.33000      -17.75140
H          6.77020      -16.71840      -16.94470
H         13.18410      -21.06430      -19.21220
H          7.37330      -24.31230      -16.59030
