29
REP
O          3.05200      -10.27700       28.42300
C          2.53900       -9.34800       27.97200
Re         1.65000       -7.80300       27.17600
C          3.35300       -7.23900       26.46200
C          2.11000       -6.78600       28.77000
N         -0.34500       -8.42100       27.73300
N          0.97600       -8.95000       25.45700
O          4.37000       -6.90800       26.06500
O          2.34900       -6.19100       29.68100
C         -0.98300       -8.12700       28.87400
C         -0.99200       -9.18400       26.80300
C          1.62900       -9.20800       24.31600
C         -0.29200       -9.47100       25.58400
H         -0.48360       -7.50670       29.60350
C         -2.27100       -8.59300       29.15600
C         -2.29400       -9.68700       27.01500
H          2.62020       -8.79870       24.18810
C          1.08800       -9.98500       23.27700
C         -0.89700      -10.25800       24.58800
H         -2.74330       -8.35010       30.09640
C         -2.91700       -9.34500       28.24900
C         -2.88500      -10.49000       25.97200
H          1.65660      -10.17740       22.37920
C         -0.17000      -10.49100       23.42600
C         -2.22800      -10.75600       24.82300
H         -3.91780       -9.69320       28.45780
H         -3.87860      -10.88860       26.11420
H         -0.60620      -11.07930       22.63230
H         -2.71030      -11.35450       24.06440

