30
4hhg_C_DRU.xyz
Ru        10.10000      -20.01900      -15.12600
N         11.07300      -18.53300      -14.75600
C         10.76900      -17.31400      -15.30500
C         11.54100      -16.20400      -15.03200
C         12.68500      -16.36600      -14.23000
C         12.94300      -17.63500      -13.71200
C         12.14100      -18.75300      -14.03700
C         12.18800      -20.23100      -13.60700
C         13.14800      -20.88500      -12.80500
C         13.01400      -22.25500      -12.56600
C         11.97500      -22.96700      -13.08800
C         11.05800      -22.31200      -13.87800
N         11.18200      -21.02300      -14.08800
N         11.03000      -20.44800      -16.63900
C         12.00600      -19.71000      -17.10900
C         12.65900      -20.08800      -18.29000
C         12.26400      -21.22200      -18.99500
C         11.20700      -21.99600      -18.48700
C         10.63300      -21.57300      -17.27500
C          9.50000      -22.21100      -16.56300
C          8.85900      -23.36500      -17.04300
C          7.85400      -23.89700      -16.28300
C          7.50900      -23.26400      -15.12600
C          8.17100      -22.11000      -14.69600
N          9.11100      -21.54200      -15.46100
C          7.67500      -18.89100      -16.51600
C          7.37100      -17.57300      -16.85700
N          9.07100      -18.84400      -16.11400
C          9.48200      -17.42600      -16.08800
N          8.42800      -16.71300      -16.60900
