25
RU7
H        -26.67020      -22.87880       27.41480
C        -26.48600      -23.13700       26.37200
C        -27.17600      -22.13400       25.47400
H        -25.41350      -23.12060       26.17790
H        -26.87660      -24.13440       26.17020
C        -28.63700      -22.08800       25.91200
C        -26.95100      -22.44800       24.01800
H        -26.73930      -21.15540       25.67330
C        -29.68000      -22.57700       25.14500
C        -28.97400      -21.50700       27.17700
Ru       -30.18900      -20.49300       25.67100
H        -27.46120      -21.70680       23.40290
H        -27.34630      -23.43900       23.79500
H        -25.88280      -22.42590       23.80240
H        -29.47090      -23.02720       24.18590
C        -31.02800      -22.49400       25.60500
H        -28.18770      -21.10810       27.80070
C        -30.28600      -21.44500       27.61900
C        -31.35600      -21.93600       26.84500
H        -31.81970      -22.87380       24.97630
H        -30.49420      -21.00780       28.58440
C        -32.77500      -21.85800       27.32200
H        -32.80280      -21.39050       28.30630
H        -33.19250      -22.86290       27.38540
H        -33.36180      -21.26430       26.62110
